Version 4.1
SHEET 1 880 680
WIRE 256 80 192 80
WIRE 368 80 336 80
WIRE 368 112 368 80
WIRE 192 128 192 80
WIRE 144 208 48 208
WIRE 192 272 192 224
WIRE 48 320 48 288
FLAG 192 272 0
FLAG 48 320 0
FLAG 368 112 0
SYMBOL nmos 144 128 R0
SYMATTR InstName M1
SYMATTR Value Si7336ADP
SYMBOL voltage 48 192 R0
WINDOW 123 0 0 Left 0
WINDOW 39 0 0 Left 0
SYMATTR InstName V_GS
SYMATTR Value {VGS}
SYMBOL voltage 240 80 R270
WINDOW 0 32 56 VTop 2
WINDOW 3 -32 56 VBottom 2
WINDOW 123 0 0 Left 0
WINDOW 39 0 0 Left 0
SYMATTR InstName V_DS
SYMATTR Value 0
TEXT 264 280 Left 2 !.dc V_DS 0 10 0.05
TEXT 264 312 Left 2 !.step param VGS 0 10 0.5
